CM Ex card is correct, errors can be bugs 
CE 
GW 1 14 0 0 0 4.687742e+00 4.063226e+00 2.345806e+00  1.02e-3
GW 2 10 4.687742e+00 4.063226e+00 2.345806e+00 7.845161e-01 4.219355e+00 3.750968e+00  1.02e-3
GW 3 10 7.845161e-01 4.219355e+00 3.750968e+00 4.063226e+00 2.658065e+00 1.409032e+00  1.02e-3
GW 4 7 4.063226e+00 2.658065e+00 1.409032e+00 1.409032e+00 3.750968e+00 1.252903e+00  1.02e-3
GW 5 5 1.409032e+00 3.750968e+00 1.252903e+00 1.252903e+00 3.126452e+00 3.126452e+00  1.02e-3
GW 6 9 1.252903e+00 3.126452e+00 3.126452e+00 3.750968e+00 1.600000e-01 3.282581e+00  1.02e-3
GW 7 11 3.750968e+00 1.600000e-01 3.282581e+00 4.375484e+00 4.219355e+00 1.096774e+00  1.02e-3
GE 1
GN 1 0
EX 0 1 1 0 1 0
FR 0 1 0 0 30 0
RP 0 19 73 1003 -90 0 5 5 
