CM Ex card is correct, errors can be bugs 
CE 
GW 1 9 0 0 0 6.062931e-02 1.824134e-02 4.851846e-02  1e-3
GW 2 4 6.062931e-02 1.824134e-02 4.851846e-02 5.457389e-02 4.851846e-02 3.943533e-02  1e-3
GW 3 4 5.457389e-02 4.851846e-02 3.943533e-02 4.246304e-02 5.154618e-02 6.668474e-02  1e-3
GW 4 4 4.246304e-02 5.154618e-02 6.668474e-02 3.035219e-02 2.732448e-02 7.274016e-02  1e-3
GW 5 6 3.035219e-02 2.732448e-02 7.274016e-02 7.576788e-02 1.218592e-02 8.787872e-02  1e-3
GW 6 8 7.576788e-02 1.218592e-02 8.787872e-02 9.090644e-02 7.274016e-02 6.971245e-02  1e-3
GW 7 12 9.090644e-02 7.274016e-02 6.971245e-02 3.102780e-03 2.732448e-02 7.879559e-02  1e-3
GE 1
GN 1 0
EX 0 1 1 0 1 0
FR 0 1 0 0 1547 0
RP 0 19 73 1003 -90 0 5 5 