CM Ex card is correct, errors can be bugs 
CE 
GW 1 9 0 0 0 4.851846e-02 5.760160e-02 9.158204e-03  1e-3
GW 2 7 4.851846e-02 5.760160e-02 9.158204e-03 5.154618e-02 1.824134e-02 5.154618e-02  1e-3
GW 3 5 5.154618e-02 1.824134e-02 5.154618e-02 7.274016e-02 2.732448e-02 1.824134e-02  1e-3
GW 4 10 7.274016e-02 2.732448e-02 1.824134e-02 9.393415e-02 7.879559e-02 8.787872e-02  1e-3
GW 5 3 9.393415e-02 7.879559e-02 8.787872e-02 7.576788e-02 8.182330e-02 7.576788e-02  1e-3
GW 6 9 7.576788e-02 8.182330e-02 7.576788e-02 1.824134e-02 3.943533e-02 6.668474e-02  1e-3
GW 7 10 1.824134e-02 3.943533e-02 6.668474e-02 9.393415e-02 9.158204e-03 7.879559e-02  1e-3
GE 1
GN 1 0
EX 0 1 1 0 1 0
FR 0 1 0 0 1547 0
RP 0 19 73 1003 -90 0 5 5 