CM Ex card is correct, errors can be bugs 
CE 
GW 1 11 0 0 0 4.246304e-02 7.879559e-02 3.640762e-02  1e-3
GW 2 6 4.246304e-02 7.879559e-02 3.640762e-02 3.102780e-03 6.668474e-02 5.457389e-02  1e-3
GW 3 9 3.102780e-03 6.668474e-02 5.457389e-02 6.971245e-02 2.732448e-02 6.365703e-02  1e-3
GW 4 6 6.971245e-02 2.732448e-02 6.365703e-02 8.787872e-02 6.062931e-02 8.787872e-02  1e-3
GW 5 8 8.787872e-02 6.062931e-02 8.787872e-02 3.035219e-02 7.274016e-02 6.668474e-02  1e-3
GW 6 4 3.035219e-02 7.274016e-02 6.668474e-02 9.158204e-03 9.393415e-02 5.457389e-02  1e-3
GW 7 11 9.158204e-03 9.393415e-02 5.457389e-02 3.035219e-02 6.130492e-03 8.182330e-02  1e-3
GE 1
GN 1 0
EX 0 1 1 0 1 0
FR 0 1 0 0 1547 0
RP 0 19 73 1003 -90 0 5 5 