CM Ex card is correct, errors can be bugs 
CE 
GW 1 7 0 0 0 4.549075e-02 9.158204e-03 3.943533e-02  1e-3
GW 2 5 4.549075e-02 9.158204e-03 3.943533e-02 6.971245e-02 3.102780e-03 1.521363e-02  1e-3
GW 3 8 6.971245e-02 3.102780e-03 1.521363e-02 6.062931e-02 6.062931e-02 3.943533e-02  1e-3
GW 4 4 6.062931e-02 6.062931e-02 3.943533e-02 6.668474e-02 8.182330e-02 5.154618e-02  1e-3
GW 5 7 6.668474e-02 8.182330e-02 5.154618e-02 1.521363e-02 6.668474e-02 6.365703e-02  1e-3
GW 6 7 1.521363e-02 6.668474e-02 6.365703e-02 1.218592e-02 9.158204e-03 6.062931e-02  1e-3
GW 7 10 1.218592e-02 9.158204e-03 6.062931e-02 6.130492e-03 8.787872e-02 8.787872e-02  1e-3
GE 1
GN 1 0
EX 0 1 1 0 1 0
FR 0 1 0 0 1547 0
RP 0 19 73 1003 -90 0 5 5 