CM Ex card is correct, errors can be bugs 
CE 
GW 1 6 0 0 0 3.640762e-02 3.035219e-02 3.035219e-02  1e-3
GW 2 6 3.640762e-02 3.035219e-02 3.035219e-02 4.851846e-02 6.062931e-02 6.365703e-02  1e-3
GW 3 4 4.851846e-02 6.062931e-02 6.365703e-02 1.824134e-02 6.365703e-02 5.154618e-02  1e-3
GW 4 10 1.824134e-02 6.365703e-02 5.154618e-02 7.576788e-02 3.102780e-03 7.576788e-02  1e-3
GW 5 8 7.576788e-02 3.102780e-03 7.576788e-02 6.971245e-02 6.971245e-02 5.457389e-02  1e-3
GW 6 10 6.971245e-02 6.971245e-02 5.457389e-02 3.102780e-03 2.126905e-02 2.126905e-02  1e-3
GW 7 3 3.102780e-03 2.126905e-02 2.126905e-02 1.218592e-02 4.246304e-02 2.126905e-02  1e-3
GE 1
GN 1 0
EX 0 1 1 0 1 0
FR 0 1 0 0 1547 0
RP 0 19 73 1003 -90 0 5 5 