CM Ex card is correct, errors can be bugs 
CE 
GW 1 10 0 0 0 3.640762e-02 7.576788e-02 2.429677e-02  1e-3
GW 2 8 3.640762e-02 7.576788e-02 2.429677e-02 7.879559e-02 4.246304e-02 6.668474e-02  1e-3
GW 3 7 7.879559e-02 4.246304e-02 6.668474e-02 2.732448e-02 5.760160e-02 6.668474e-02  1e-3
GW 4 9 2.732448e-02 5.760160e-02 6.668474e-02 9.696186e-02 7.576788e-02 8.787872e-02  1e-3
GW 5 3 9.696186e-02 7.576788e-02 8.787872e-02 8.787872e-02 8.787872e-02 8.485101e-02  1e-3
GW 6 8 8.787872e-02 8.787872e-02 8.485101e-02 8.182330e-02 2.126905e-02 6.365703e-02  1e-3
GW 7 14 8.182330e-02 2.126905e-02 6.365703e-02 3.102780e-03 9.696186e-02 1.521363e-02  1e-3
GE 1
GN 1 0
EX 0 1 1 0 1 0
FR 0 1 0 0 1547 0
RP 0 19 73 1003 -90 0 5 5 